%chk=s0.chk
%mem=10GB
%nprocshared=16
# opt b3lyp/gen pseudo=read

dpgen

0 1
 C                  0.10606500    1.79894200   -1.44169900
 C                  1.22629300    2.53404900   -1.86295000
 C                  1.14982300    3.43054500   -2.92906300
 H                  2.03634300    3.98261500   -3.23276100
 C                 -0.05663500    3.62900600   -3.61161000
 C                 -1.18722400    2.92553900   -3.21407900
 H                 -2.12513300    3.08376600   -3.74038700
 C                 -1.11453000    2.02223000   -2.14059700
 C                 -2.25871100    1.25791700   -1.65001700
 C                 -0.10615100    1.79863700    1.44200600
 C                 -1.22639300    2.53362400    1.86343100
 C                 -1.14992300    3.42994100    2.92969300
 H                 -2.03645700    3.98191700    3.23352100
 C                  0.05655600    3.62833900    3.61222500
 C                  1.18715400    2.92497800    3.21453900
 H                  2.12507900    3.08315800    3.74083300
 C                  1.11445800    2.02183800    2.14091400
 C                  2.25864400    1.25762900    1.65018900
 Ir                -0.00004000    0.40953000    0.00001300
 N                  1.97719700    0.45348500    0.58305300
 O                  0.29575700   -1.20573500   -1.47623400
 O                 -0.29584700   -1.20607200    1.47582400
 C                 -0.00009000   -3.08035400   -0.00042900
 C                  0.22355400   -2.45490400   -1.24447200
 H                 -0.00008100   -4.16412600   -0.00055900
 C                 -0.22368300   -2.45519800    1.24376100
 C                  4.58577400    0.51361500    1.59679200
 C                  3.56360100    1.28008600    2.15443500
 N                 -1.97728000    0.45359200   -0.58302400
 C                 -4.58585100    0.51391300   -1.59675500
 C                 -3.56365500    1.28047100   -2.15424800
 C                 -4.26944400   -0.29905500   -0.48025500
 C                 -2.94918100   -0.28342300   -0.02590500
 H                 -2.64459100   -0.87383900    0.83022700
 C                  2.94909900   -0.28338900    0.02576200
 H                  2.64450000   -0.87371100   -0.83042800
 C                  4.26935300   -0.29908100    0.48011600
 H                 -2.17647300    2.40242200    1.35375600
 H                  0.11115100    4.32731300    4.44162900
 H                  3.78127100    1.90068000    3.01697300
 H                 -0.11122300    4.32809900   -4.44091500
 H                  2.17635700    2.40280000   -1.35326000
 H                 -3.78133400    1.90128500   -3.01662700
 H                  4.96695056   -0.93888695   -0.01878878
 H                 -4.96693902   -0.93894005    0.01869171
 H                 -5.56188973    0.54476179   -2.03412985
 H                  5.56183708    0.54422208    2.03412948
 H                 -0.36348975   -3.07441077    2.10511437
 H                  0.36344543   -3.07394338   -2.10593624

Ir 0
Lanl2DZ
****
C H O N 0
6-31G**
****

Ir 0
Lanl2DZ




